Circuit: * D:\Documents\OneDrive - University of Waterloo\Formula Electric\2020\Tractive System\Small Electronic Load\SPICE Sims\difference_amp_test.asc

Direct Newton iteration failed to find .op point.  (Use ".option noopiter" to skip.)
Starting Gmin stepping
Gmin = 10
Gmin = 1.07374
Gmin = 0.115292
Gmin = 0.0123794
Gmin = 0.00132923
Gmin = 0.000142725
Gmin = 1.5325e-005
Gmin = 1.6455e-006
vernier = 0.5
vernier = 0.25
Gmin = 4.7763e-007
vernier = 0.125
vernier = 0.0625
vernier = 0.03125
vernier = 0.015625
vernier = 0.0078125
vernier = 0.00390625
vernier = 0.00195313
vernier = 0.000976563
Gmin = 4.49534e-007
vernier = 0.00130208
Gmin = 4.48255e-007
vernier = 0.00173611
vernier = 0.00231481
Gmin = 4.46169e-007
vernier = 0.00308642
vernier = 0.00411522
Gmin = 4.42883e-007
vernier = 0.00548696
Gmin = 4.37603e-007
vernier = 0.00731595
vernier = 0.00365797
vernier = 0.00182899
vernier = 0.000914493
vernier = 0.000457247
Gmin = 0
Gmin stepping failed

Starting source stepping with srcstepmethod=0
Source Step = 3.0303%
Source Step = 16.6667%
Source Step = 24.2424%
Source Step = 31.8182%
Source Step = 39.3939%
Source Step = 46.9697%
vernier = 0.375
Source Step = 56.4394%
Source Step = 67.803%
Source Step = 79.1667%
Source Step = 90.5303%
Source stepping succeeded in finding the operating point.

Direct Newton iteration failed to find .op point.  (Use ".option noopiter" to skip.)
Starting Gmin stepping
Gmin = 10
Gmin = 1.07374
Gmin = 0.115292
Gmin = 0.0123794
Gmin = 0.00132923
Gmin = 0.000142725
vernier = 0.5
Gmin = 2.66058e-005
vernier = 0.25
vernier = 0.333333
Gmin = 1.60486e-005
vernier = 0.444444
vernier = 0.222222
vernier = 0.111111
Gmin = 1.02023e-005
vernier = 0.0555555
vernier = 0.0277778
vernier = 0.0138889
vernier = 0.00694444
vernier = 0.00347222
vernier = 0.00173611
vernier = 0.000868055
vernier = 0.000434028
Gmin = 0
Gmin stepping failed

Starting source stepping with srcstepmethod=0
Source Step = 3.0303%
Source Step = 16.6667%
Source Step = 24.2424%
Source Step = 31.8182%
Source Step = 39.3939%
Source Step = 46.9697%
vernier = 0.375
Source Step = 56.4394%
Source Step = 67.803%
Source Step = 79.1667%
Source Step = 90.5303%
Source stepping succeeded in finding the operating point.


Date: Mon Aug 31 22:05:21 2020
Total elapsed time: 0.307 seconds.

tnom = 27
temp = 27
method = trap
totiter = 5647
traniter = 0
tranpoints = 0
accept = 0
rejected = 0
matrix size = 66
fillins = 52
solver = Normal
Thread vector: 3.6/2.7[2] 0.0/0.0[0] 0.9/1.0[1] 0.1/1.0[1]  2592/500
Matrix Compiler1: 7.32 KB object code size  1.7/0.6/[0.3]
Matrix Compiler2: 6.53 KB object code size  3.3/0.6/[0.2]

