Circuit: * D:\Documents\OneDrive - University of Waterloo\Formula Electric\2020\Tractive System\Small Electronic Load\SPICE Sims\new_mosfet_test.asc

Direct Newton iteration failed to find .op point.  (Use ".option noopiter" to skip.)
Starting Gmin stepping
Gmin = 10
Gmin = 1.07374
Gmin = 0.115292
Gmin = 0.0123794
Gmin = 0.00132923
Gmin = 0.000142725
vernier = 0.5
Gmin = 2.39452e-005
vernier = 0.25
vernier = 0.125
vernier = 0.0625
vernier = 0.03125
Gmin = 2.09572e-005
vernier = 0.0416667
Gmin = 1.91396e-005
vernier = 0.0555555
vernier = 0.074074
Gmin = 1.65038e-005
vernier = 0.0987653
vernier = 0.131687
Gmin = 1.30632e-005
vernier = 0.175583
Gmin = 8.96246e-006
vernier = 0.23411
vernier = 0.312147
Gmin = 4.87143e-006
vernier = 0.416196
vernier = 0.554928
Gmin = 1.8854e-006
vernier = 0.739903
Gmin = 4.21454e-007
vernier = 0.986537
vernier = 1
Gmin = 4.8515e-008
Gmin = 5.20925e-009
Gmin = 5.59339e-010
Gmin = 6.00586e-011
Gmin = 6.44874e-012
Gmin = 6.92429e-013
Gmin = 0
Gmin stepping succeeded in finding the operating point.

Direct Newton iteration failed to find .op point.  (Use ".option noopiter" to skip.)
Starting Gmin stepping
Gmin = 10
Gmin = 1.07374
Gmin = 0.115292
Gmin = 0.0123794
Gmin = 0.00132923
Gmin = 0.000142725
vernier = 0.5
Gmin = 2.66058e-005
vernier = 0.25
vernier = 0.125
vernier = 0.0625
vernier = 0.03125
Gmin = 2.54027e-005
vernier = 0.015625
vernier = 0.0208333
Gmin = 2.45271e-005
vernier = 0.0277778
vernier = 0.037037
Gmin = 2.29531e-005
vernier = 0.0493827
Gmin = 2.0615e-005
vernier = 0.0658435
vernier = 0.0877914
Gmin = 1.72991e-005
vernier = 0.117055
vernier = 0.156073
Gmin = 1.31206e-005
vernier = 0.208098
Gmin = 8.40833e-006
vernier = 0.277464
vernier = 0.369952
Gmin = 4.09898e-006
vernier = 0.493269
vernier = 0.657691
Gmin = 1.34369e-006
vernier = 0.876922
Gmin = 2.3298e-007
vernier = 1
Gmin = 2.56473e-008
Gmin = 2.75386e-009
Gmin = 2.95694e-010
Gmin = 3.17499e-011
Gmin = 3.40912e-012
Gmin = 3.66051e-013
Gmin = 0
Gmin stepping succeeded in finding the operating point.

Direct Newton iteration failed to find .op point.  (Use ".option noopiter" to skip.)
Starting Gmin stepping
Gmin = 10
Gmin = 1.07374
Gmin = 0.115292
Gmin = 0.0123794
Gmin = 0.00132923
Gmin = 0.000142725
vernier = 0.5
vernier = 0.25
Gmin = 4.89078e-005
vernier = 0.333333
Gmin = 2.37405e-005
vernier = 0.444444
vernier = 0.592592
Gmin = 7.26028e-006
vernier = 0.790123
vernier = 1
Gmin = 1.19514e-006
Gmin = 1.28327e-007
Gmin = 1.3779e-008
Gmin = 1.47951e-009
Gmin = 1.58861e-010
Gmin = 1.70576e-011
Gmin = 1.83154e-012
Gmin = 1.9666e-013
Gmin = 0
Gmin stepping succeeded in finding the operating point.


Date: Sun Sep 13 12:02:15 2020
Total elapsed time: 0.445 seconds.

tnom = 27
temp = 27
method = trap
totiter = 4106
traniter = 0
tranpoints = 0
accept = 0
rejected = 0
matrix size = 132
fillins = 64
solver = Normal
Matrix Compiler1: 11.73 KB object code size  3.9/1.6/[0.9]
Matrix Compiler2: 12.29 KB object code size  1.4/2.0/[0.4]

